<?xml version="1.0" encoding="UTF-8"?>

<!-- generated on 2024-03-14 15:47:15 by Eclipse SUMO netedit Version v1_19_0+0216-b7a0f83f69c
<configuration xmlns:xsi="http://www.w3.org/2001/XMLSchema-instance" xsi:noNamespaceSchemaLocation="http://sumo.dlr.de/xsd/neteditConfiguration.xsd">

    <input>
        <sumocfg-file value="C:\Users\loren\Downloads\circle.sumocfg"/>
        <sumo-net-file value="C:\Users\loren\Downloads\circle.net.xml"/>
    </input>

    <output>
        <output-file value="C:\Users\loren\Downloads\circle.net.xml"/>
    </output>

    <processing>
        <offset.disable-normalization value="true"/>
    </processing>

    <junctions>
        <no-turnarounds value="true"/>
    </junctions>

    <netedit>
        <new-network value="false"/>
    </netedit>

</configuration>
-->

<net version="1.16" junctionCornerDetail="5" limitTurnSpeed="5.50" xmlns:xsi="http://www.w3.org/2001/XMLSchema-instance" xsi:noNamespaceSchemaLocation="http://sumo.dlr.de/xsd/net_file.xsd">

    <location netOffset="0.00,0.00" convBoundary="-41.42,-141.42,241.42,141.42" origBoundary="10000000000.00,10000000000.00,-10000000000.00,-10000000000.00" projParameter="!"/>

    <edge id=":J0_0" function="internal">
        <lane id=":J0_0_0" index="0" speed="30.00" length="0.10" shape="201.10,-101.16 201.16,-101.10"/>
    </edge>
    <edge id=":J1_0" function="internal">
        <lane id=":J1_0_0" index="0" speed="30.00" length="0.10" shape="201.16,101.10 201.10,101.16"/>
    </edge>
    <edge id=":J2_0" function="internal">
        <lane id=":J2_0_0" index="0" speed="30.00" length="0.10" shape="-1.10,101.16 -1.16,101.10"/>
    </edge>
    <edge id=":J3_0" function="internal">
        <lane id=":J3_0_0" index="0" speed="30.00" length="0.10" shape="-1.16,-101.10 -1.10,-101.16"/>
    </edge>

    <edge id="E4" from="J0" to="J1" priority="-1" shape="200.00,-100.00 204.79,-94.97 209.32,-89.72 213.59,-84.24 217.59,-78.57 221.30,-72.71 224.72,-66.67 227.84,-60.47 230.66,-54.12 233.15,-47.64 235.33,-41.05 237.18,-34.36 238.70,-27.59 239.89,-20.75 240.74,-13.86 241.25,-6.94 241.42,0.00 241.25,6.94 240.74,13.86 239.89,20.75 238.70,27.59 237.18,34.36 235.33,41.05 233.15,47.64 230.66,54.12 227.84,60.47 224.72,66.67 221.30,72.71 217.59,78.57 213.59,84.24 209.32,89.72 204.79,94.97 200.00,100.00">
        <lane id="E4_0" index="0" speed="30.00" length="224.56" shape="201.16,-101.10 205.98,-96.04 210.56,-90.73 214.88,-85.19 218.92,-79.46 222.67,-73.53 226.13,-67.42 229.29,-61.15 232.14,-54.73 234.66,-48.18 236.86,-41.51 238.73,-34.75 240.27,-27.90 241.47,-20.99 242.33,-14.02 242.85,-7.02 243.02,-0.00 242.85,7.02 242.33,14.02 241.47,20.99 240.27,27.90 238.73,34.75 236.86,41.51 234.66,48.18 232.14,54.73 229.29,61.15 226.13,67.42 222.67,73.53 218.92,79.46 214.88,85.19 210.56,90.73 205.98,96.04 201.16,101.10"/>
    </edge>
    <edge id="E5" from="J1" to="J2" priority="-1" shape="200.00,100.00 194.97,104.79 189.72,109.32 184.24,113.59 178.57,117.59 172.71,121.30 166.67,124.72 160.47,127.84 154.12,130.66 147.64,133.15 141.05,135.33 134.36,137.18 127.59,138.70 120.75,139.89 113.86,140.74 106.94,141.25 100.00,141.42 93.06,141.25 86.14,140.74 79.25,139.89 72.41,138.70 65.64,137.18 58.95,135.33 52.36,133.15 45.88,130.66 39.53,127.84 33.33,124.72 27.29,121.30 21.43,117.59 15.76,113.59 10.28,109.32 5.03,104.79 0.00,100.00">
        <lane id="E5_0" index="0" speed="30.00" length="224.56" shape="201.10,101.16 196.04,105.98 190.73,110.56 185.19,114.88 179.46,118.92 173.53,122.67 167.42,126.13 161.15,129.29 154.73,132.14 148.18,134.66 141.51,136.86 134.75,138.73 127.90,140.27 120.99,141.47 114.02,142.33 107.02,142.85 100.00,143.02 92.98,142.85 85.98,142.33 79.01,141.47 72.10,140.27 65.25,138.73 58.49,136.86 51.82,134.66 45.27,132.14 38.85,129.29 32.58,126.13 26.47,122.67 20.54,118.92 14.81,114.88 9.27,110.56 3.96,105.98 -1.10,101.16"/>
    </edge>
    <edge id="E6" from="J2" to="J3" priority="-1" shape="0.00,100.00 -4.79,94.97 -9.32,89.72 -13.59,84.24 -17.59,78.57 -21.30,72.71 -24.72,66.67 -27.84,60.47 -30.66,54.12 -33.15,47.64 -35.33,41.05 -37.18,34.36 -38.70,27.59 -39.89,20.75 -40.74,13.86 -41.25,6.94 -41.42,0.00 -41.25,-6.94 -40.74,-13.86 -39.89,-20.75 -38.70,-27.59 -37.18,-34.36 -35.33,-41.05 -33.15,-47.64 -30.66,-54.12 -27.84,-60.47 -24.72,-66.67 -21.30,-72.71 -17.59,-78.57 -13.59,-84.24 -9.32,-89.72 -4.79,-94.97 0.00,-100.00">
        <lane id="E6_0" index="0" speed="30.00" length="224.56" shape="-1.16,101.10 -5.98,96.04 -10.56,90.73 -14.88,85.19 -18.92,79.46 -22.67,73.53 -26.13,67.42 -29.29,61.15 -32.14,54.73 -34.66,48.18 -36.86,41.51 -38.73,34.75 -40.27,27.90 -41.47,20.99 -42.33,14.02 -42.85,7.02 -43.02,-0.00 -42.85,-7.02 -42.33,-14.02 -41.47,-20.99 -40.27,-27.90 -38.73,-34.75 -36.86,-41.51 -34.66,-48.18 -32.14,-54.73 -29.29,-61.15 -26.13,-67.42 -22.67,-73.53 -18.92,-79.46 -14.88,-85.19 -10.56,-90.73 -5.98,-96.04 -1.16,-101.10"/>
    </edge>
    <edge id="E7" from="J3" to="J0" priority="-1" shape="0.00,-100.00 5.03,-104.79 10.28,-109.32 15.76,-113.59 21.43,-117.59 27.29,-121.30 33.33,-124.72 39.53,-127.84 45.88,-130.66 52.36,-133.15 58.95,-135.33 65.64,-137.18 72.41,-138.70 79.25,-139.89 86.14,-140.74 93.06,-141.25 100.00,-141.42 106.94,-141.25 113.86,-140.74 120.75,-139.89 127.59,-138.70 134.36,-137.18 141.05,-135.33 147.64,-133.15 154.12,-130.66 160.47,-127.84 166.67,-124.72 172.71,-121.30 178.57,-117.59 184.24,-113.59 189.72,-109.32 194.97,-104.79 200.00,-100.00">
        <lane id="E7_0" index="0" speed="30.00" length="224.56" shape="-1.10,-101.16 3.96,-105.98 9.27,-110.56 14.81,-114.88 20.54,-118.92 26.47,-122.67 32.58,-126.13 38.85,-129.29 45.27,-132.14 51.82,-134.66 58.49,-136.86 65.25,-138.73 72.10,-140.27 79.01,-141.47 85.98,-142.33 92.98,-142.85 100.00,-143.02 107.02,-142.85 114.02,-142.33 120.99,-141.47 127.90,-140.27 134.75,-138.73 141.51,-136.86 148.18,-134.66 154.73,-132.14 161.15,-129.29 167.42,-126.13 173.53,-122.67 179.46,-118.92 185.19,-114.88 190.73,-110.56 196.04,-105.98 201.10,-101.16"/>
    </edge>

    <junction id="J0" type="priority" x="200.00" y="-100.00" incLanes="E7_0" intLanes=":J0_0_0" shape="200.04,-99.96 202.35,-102.17 202.17,-102.35 199.96,-100.04">
        <request index="0" response="0" foes="0" cont="0"/>
    </junction>
    <junction id="J1" type="priority" x="200.00" y="100.00" incLanes="E4_0" intLanes=":J1_0_0" shape="202.35,102.17 200.04,99.96 199.96,100.04 202.17,102.35">
        <request index="0" response="0" foes="0" cont="0"/>
    </junction>
    <junction id="J2" type="priority" x="0.00" y="100.00" incLanes="E5_0" intLanes=":J2_0_0" shape="-2.17,102.35 0.04,100.04 -0.04,99.96 -2.35,102.17">
        <request index="0" response="0" foes="0" cont="0"/>
    </junction>
    <junction id="J3" type="priority" x="0.00" y="-100.00" incLanes="E6_0" intLanes=":J3_0_0" shape="0.04,-100.04 -2.17,-102.35 -2.35,-102.17 -0.04,-99.96">
        <request index="0" response="0" foes="0" cont="0"/>
    </junction>

    <connection from="E4" to="E5" fromLane="0" toLane="0" via=":J1_0_0" dir="s" state="M"/>
    <connection from="E5" to="E6" fromLane="0" toLane="0" via=":J2_0_0" dir="s" state="M"/>
    <connection from="E6" to="E7" fromLane="0" toLane="0" via=":J3_0_0" dir="s" state="M"/>
    <connection from="E7" to="E4" fromLane="0" toLane="0" via=":J0_0_0" dir="s" state="M"/>

    <connection from=":J0_0" to="E4" fromLane="0" toLane="0" dir="s" state="M"/>
    <connection from=":J1_0" to="E5" fromLane="0" toLane="0" dir="s" state="M"/>
    <connection from=":J2_0" to="E6" fromLane="0" toLane="0" dir="s" state="M"/>
    <connection from=":J3_0" to="E7" fromLane="0" toLane="0" dir="s" state="M"/>

</net>
