<?xml version="1.0" encoding="UTF-8"?>

<!-- generated on 2024-01-17 09:58:59 by Eclipse SUMO sumo Version v1_19_0+0227-df0d1479b01
-->

<configuration xmlns:xsi="http://www.w3.org/2001/XMLSchema-instance" xsi:noNamespaceSchemaLocation="http://sumo.dlr.de/xsd/sumoConfiguration.xsd">
	<step-length value="0.1"/>
    <input>
        <net-file value="circle.net.xml"/>
        <route-files value="circle.rou.xml"/>
        <additional-files value="circle.add.xml"/>
    </input>
</configuration>
