<?xml version="1.0" encoding="UTF-8"?>

<!-- generated on 2024-03-12 19:20:04 by Eclipse SUMO netedit Version v1_19_0+0216-b7a0f83f69c
<configuration xmlns:xsi="http://www.w3.org/2001/XMLSchema-instance" xsi:noNamespaceSchemaLocation="http://sumo.dlr.de/xsd/neteditConfiguration.xsd">

    <input>
        <sumocfg-file value="C:\Users\loren\Downloads\ring1.sumocfg"/>
        <sumo-net-file value="C:\Users\loren\Downloads\ring1.net.xml"/>
    </input>

    <output>
        <output-file value="C:\Users\loren\Downloads\ring1.net.xml"/>
    </output>

    <processing>
        <offset.disable-normalization value="true"/>
    </processing>

    <junctions>
        <no-turnarounds value="true"/>
    </junctions>

    <netedit>
        <new-network value="false"/>
    </netedit>

</configuration>
-->

<net version="1.16" junctionCornerDetail="5" limitTurnSpeed="5.50" xmlns:xsi="http://www.w3.org/2001/XMLSchema-instance" xsi:noNamespaceSchemaLocation="http://sumo.dlr.de/xsd/net_file.xsd">

    <location netOffset="0.00,0.00" convBoundary="-42.00,-42.00,42.00,42.00" origBoundary="10000000000.00,10000000000.00,-10000000000.00,-10000000000.00" projParameter="!"/>

    <edge id=":J0_0" function="internal">
        <lane id=":J0_0_0" index="0" speed="30.00" length="0.28" shape="43.60,-0.14 43.60,0.14"/>
    </edge>
    <edge id=":J1_0" function="internal">
        <lane id=":J1_0_0" index="0" speed="30.00" length="0.27" shape="-21.68,37.82 -21.92,37.69"/>
    </edge>
    <edge id=":J2_0" function="internal">
        <lane id=":J2_0_0" index="0" speed="30.00" length="0.27" shape="-21.92,-37.69 -21.68,-37.82"/>
    </edge>

    <edge id="E0" from="J0" to="J1" priority="-1" shape="42.00,0.00 41.99,1.10 41.94,2.20 41.87,3.30 41.77,4.39 41.64,5.48 41.48,6.57 41.30,7.65 41.08,8.73 40.84,9.80 40.57,10.87 40.27,11.93 39.94,12.98 39.59,14.02 39.21,15.05 38.80,16.07 38.37,17.08 37.91,18.08 37.42,19.07 36.91,20.04 36.37,21.00 35.81,21.94 35.22,22.87 34.61,23.79 33.98,24.69 33.32,25.57 32.64,26.43 31.94,27.28 31.21,28.10 30.47,28.91 29.70,29.70 28.91,30.47 28.10,31.21 27.28,31.94 26.43,32.64 25.57,33.32 24.69,33.98 23.79,34.61 22.87,35.22 21.94,35.81 21.00,36.37 20.04,36.91 19.07,37.42 18.08,37.91 17.08,38.37 16.07,38.80 15.05,39.21 14.02,39.59 12.98,39.94 11.93,40.27 10.87,40.57 9.80,40.84 8.73,41.08 7.65,41.30 6.57,41.48 5.48,41.64 4.39,41.77 3.30,41.87 2.20,41.94 1.10,41.99 0.00,42.00 -1.10,41.99 -2.20,41.94 -3.30,41.87 -4.39,41.77 -5.48,41.64 -6.57,41.48 -7.65,41.30 -8.73,41.08 -9.80,40.84 -10.87,40.57 -11.93,40.27 -12.98,39.94 -14.02,39.59 -15.05,39.21 -16.07,38.80 -17.08,38.37 -18.08,37.91 -19.07,37.42 -20.04,36.91 -21.00,36.37">
        <lane id="E0_0" index="0" speed="30.00" length="91.04" shape="43.60,0.14 43.59,1.14 43.54,2.29 43.47,3.42 43.36,4.56 43.23,5.69 43.06,6.82 42.87,7.94 42.64,9.06 42.40,10.17 42.12,11.28 41.80,12.39 41.46,13.48 41.10,14.55 40.70,15.63 40.28,16.68 39.83,17.73 39.35,18.77 38.85,19.80 38.32,20.80 37.75,21.80 37.17,22.78 36.56,23.74 35.93,24.69 35.28,25.63 34.59,26.55 33.89,27.43 33.16,28.32 32.40,29.17 31.63,30.01 30.83,30.83 30.01,31.63 29.17,32.40 28.32,33.16 27.43,33.89 26.55,34.59 25.63,35.28 24.69,35.93 23.74,36.56 22.78,37.17 21.80,37.75 20.80,38.32 19.80,38.85 18.77,39.35 17.73,39.83 16.68,40.28 15.63,40.70 14.55,41.10 13.48,41.46 12.39,41.80 11.28,42.12 10.17,42.40 9.06,42.64 7.94,42.87 6.82,43.06 5.69,43.23 4.56,43.36 3.42,43.47 2.29,43.54 1.14,43.59 0.00,43.60 -1.14,43.59 -2.29,43.54 -3.42,43.47 -4.56,43.36 -5.69,43.23 -6.82,43.06 -7.94,42.87 -9.06,42.64 -10.17,42.40 -11.28,42.12 -12.39,41.80 -13.48,41.46 -14.55,41.10 -15.63,40.70 -16.68,40.28 -17.73,39.83 -18.77,39.35 -19.80,38.85 -20.80,38.32 -21.68,37.82"/>
    </edge>
    <edge id="E1" from="J1" to="J2" priority="-1" shape="-21.00,36.37 -21.94,35.81 -22.87,35.22 -23.79,34.61 -24.69,33.98 -25.57,33.32 -26.43,32.64 -27.28,31.94 -28.10,31.21 -28.91,30.47 -29.70,29.70 -30.47,28.91 -31.21,28.10 -31.94,27.28 -32.64,26.43 -33.32,25.57 -33.98,24.69 -34.61,23.79 -35.22,22.87 -35.81,21.94 -36.37,21.00 -36.91,20.04 -37.42,19.07 -37.91,18.08 -38.37,17.08 -38.80,16.07 -39.21,15.05 -39.59,14.02 -39.94,12.98 -40.27,11.93 -40.57,10.87 -40.84,9.80 -41.08,8.73 -41.30,7.65 -41.48,6.57 -41.64,5.48 -41.77,4.39 -41.87,3.30 -41.94,2.20 -41.99,1.10 -42.00,0.00 -41.99,-1.10 -41.94,-2.20 -41.87,-3.30 -41.77,-4.39 -41.64,-5.48 -41.48,-6.57 -41.30,-7.65 -41.08,-8.73 -40.84,-9.80 -40.57,-10.87 -40.27,-11.93 -39.94,-12.98 -39.59,-14.02 -39.21,-15.05 -38.80,-16.07 -38.37,-17.08 -37.91,-18.08 -37.42,-19.07 -36.91,-20.04 -36.37,-21.00 -35.81,-21.94 -35.22,-22.87 -34.61,-23.79 -33.98,-24.69 -33.32,-25.57 -32.64,-26.43 -31.94,-27.28 -31.21,-28.10 -30.47,-28.91 -29.70,-29.70 -28.91,-30.47 -28.10,-31.21 -27.28,-31.94 -26.43,-32.64 -25.57,-33.32 -24.69,-33.98 -23.79,-34.61 -22.87,-35.22 -21.94,-35.81 -21.00,-36.37">
        <lane id="E1_0" index="0" speed="30.00" length="91.04" shape="-21.92,37.69 -22.78,37.17 -23.74,36.56 -24.69,35.93 -25.63,35.28 -26.55,34.59 -27.43,33.89 -28.32,33.16 -29.17,32.40 -30.01,31.63 -30.83,30.83 -31.63,30.01 -32.40,29.17 -33.16,28.32 -33.89,27.43 -34.59,26.55 -35.28,25.63 -35.93,24.69 -36.56,23.74 -37.17,22.78 -37.75,21.80 -38.32,20.80 -38.85,19.80 -39.35,18.77 -39.83,17.73 -40.28,16.68 -40.70,15.63 -41.10,14.55 -41.46,13.48 -41.80,12.39 -42.12,11.28 -42.40,10.17 -42.64,9.06 -42.87,7.94 -43.06,6.82 -43.23,5.69 -43.36,4.56 -43.47,3.42 -43.54,2.29 -43.59,1.14 -43.60,0.00 -43.59,-1.14 -43.54,-2.29 -43.47,-3.42 -43.36,-4.56 -43.23,-5.69 -43.06,-6.82 -42.87,-7.94 -42.64,-9.06 -42.40,-10.17 -42.12,-11.28 -41.80,-12.39 -41.46,-13.48 -41.10,-14.55 -40.70,-15.63 -40.28,-16.68 -39.83,-17.73 -39.35,-18.77 -38.85,-19.80 -38.32,-20.80 -37.75,-21.80 -37.17,-22.78 -36.56,-23.74 -35.93,-24.69 -35.28,-25.63 -34.59,-26.55 -33.89,-27.43 -33.16,-28.32 -32.40,-29.17 -31.63,-30.01 -30.83,-30.83 -30.01,-31.63 -29.17,-32.40 -28.32,-33.16 -27.43,-33.89 -26.55,-34.59 -25.63,-35.28 -24.69,-35.93 -23.74,-36.56 -22.78,-37.17 -21.92,-37.69"/>
    </edge>
    <edge id="E2" from="J2" to="J0" priority="-1" shape="-21.00,-36.37 -20.04,-36.91 -19.07,-37.42 -18.08,-37.91 -17.08,-38.37 -16.07,-38.80 -15.05,-39.21 -14.02,-39.59 -12.98,-39.94 -11.93,-40.27 -10.87,-40.57 -9.80,-40.84 -8.73,-41.08 -7.65,-41.30 -6.57,-41.48 -5.48,-41.64 -4.39,-41.77 -3.30,-41.87 -2.20,-41.94 -1.10,-41.99 -0.00,-42.00 1.10,-41.99 2.20,-41.94 3.30,-41.87 4.39,-41.77 5.48,-41.64 6.57,-41.48 7.65,-41.30 8.73,-41.08 9.80,-40.84 10.87,-40.57 11.93,-40.27 12.98,-39.94 14.02,-39.59 15.05,-39.21 16.07,-38.80 17.08,-38.37 18.08,-37.91 19.07,-37.42 20.04,-36.91 21.00,-36.37 21.94,-35.81 22.87,-35.22 23.79,-34.61 24.69,-33.98 25.57,-33.32 26.43,-32.64 27.28,-31.94 28.10,-31.21 28.91,-30.47 29.70,-29.70 30.47,-28.91 31.21,-28.10 31.94,-27.28 32.64,-26.43 33.32,-25.57 33.98,-24.69 34.61,-23.79 35.22,-22.87 35.81,-21.94 36.37,-21.00 36.91,-20.04 37.42,-19.07 37.91,-18.08 38.37,-17.08 38.80,-16.07 39.21,-15.05 39.59,-14.02 39.94,-12.98 40.27,-11.93 40.57,-10.87 40.84,-9.80 41.08,-8.73 41.30,-7.65 41.48,-6.57 41.64,-5.48 41.77,-4.39 41.87,-3.30 41.94,-2.20 41.99,-1.10 42.00,0.00">
        <lane id="E2_0" index="0" speed="30.00" length="91.04" shape="-21.68,-37.82 -20.80,-38.32 -19.80,-38.85 -18.77,-39.35 -17.73,-39.83 -16.68,-40.28 -15.63,-40.70 -14.55,-41.10 -13.48,-41.46 -12.39,-41.80 -11.28,-42.12 -10.17,-42.40 -9.06,-42.64 -7.94,-42.87 -6.82,-43.06 -5.69,-43.23 -4.56,-43.36 -3.42,-43.47 -2.29,-43.54 -1.14,-43.59 -0.00,-43.60 1.14,-43.59 2.29,-43.54 3.42,-43.47 4.56,-43.36 5.69,-43.23 6.82,-43.06 7.94,-42.87 9.06,-42.64 10.17,-42.40 11.28,-42.12 12.39,-41.80 13.48,-41.46 14.55,-41.10 15.63,-40.70 16.68,-40.28 17.73,-39.83 18.77,-39.35 19.80,-38.85 20.80,-38.32 21.80,-37.75 22.78,-37.17 23.74,-36.56 24.69,-35.93 25.63,-35.28 26.55,-34.59 27.43,-33.89 28.32,-33.16 29.17,-32.40 30.01,-31.63 30.83,-30.83 31.63,-30.01 32.40,-29.17 33.16,-28.32 33.89,-27.43 34.59,-26.55 35.28,-25.63 35.93,-24.69 36.56,-23.74 37.17,-22.78 37.75,-21.80 38.32,-20.80 38.85,-19.80 39.35,-18.77 39.83,-17.73 40.28,-16.68 40.70,-15.63 41.10,-14.55 41.46,-13.48 41.80,-12.39 42.12,-11.28 42.40,-10.17 42.64,-9.06 42.87,-7.94 43.06,-6.82 43.23,-5.69 43.36,-4.56 43.47,-3.42 43.54,-2.29 43.59,-1.14 43.60,-0.14"/>
    </edge>

    <junction id="J0" type="priority" x="42.00" y="0.00" incLanes="E2_0" intLanes=":J0_0_0" shape="45.20,-0.16 42.00,-0.13 42.00,0.13 45.20,0.16">
        <request index="0" response="0" foes="0" cont="0"/>
    </junction>
    <junction id="J1" type="priority" x="-21.00" y="36.37" incLanes="E0_0" intLanes=":J1_0_0" shape="-22.47,39.22 -20.90,36.43 -21.10,36.31 -22.74,39.06">
        <request index="0" response="0" foes="0" cont="0"/>
    </junction>
    <junction id="J2" type="priority" x="-21.00" y="-36.37" incLanes="E1_0" intLanes=":J2_0_0" shape="-20.90,-36.43 -22.47,-39.22 -22.74,-39.06 -21.10,-36.31">
        <request index="0" response="0" foes="0" cont="0"/>
    </junction>

    <connection from="E0" to="E1" fromLane="0" toLane="0" via=":J1_0_0" dir="s" state="M"/>
    <connection from="E1" to="E2" fromLane="0" toLane="0" via=":J2_0_0" dir="s" state="M"/>
    <connection from="E2" to="E0" fromLane="0" toLane="0" via=":J0_0_0" dir="s" state="M"/>

    <connection from=":J0_0" to="E0" fromLane="0" toLane="0" dir="s" state="M"/>
    <connection from=":J1_0" to="E1" fromLane="0" toLane="0" dir="s" state="M"/>
    <connection from=":J2_0" to="E2" fromLane="0" toLane="0" dir="s" state="M"/>

</net>
