<?xml version="1.0" encoding="UTF-8"?>

<!-- generated on 2024-03-12 19:20:04 by Eclipse SUMO sumo Version v1_19_0+0216-b7a0f83f69c
-->

<configuration xmlns:xsi="http://www.w3.org/2001/XMLSchema-instance" xsi:noNamespaceSchemaLocation="http://sumo.dlr.de/xsd/sumoConfiguration.xsd">

    <input>
        <net-file value="ring1.net.xml"/>
        <route-files value="ring1.rou.xml"/>
        <additional-files value="ring1.add.xml"/>
    </input>

</configuration>
